LTspice 24.0.12 for Windows
Circuit: * D:\spacesystem\HW1\Scaling_circuit.asc
Start Time: Tue Oct 29 11:24:18 2024
solver = Normal
Maximum thread count: 12
tnom = 27
temp = 27
method = modified trap
Direct Newton iteration for .op point succeeded.
Ignoring empty pin current: Ix(u1:1)
Ignoring empty pin current: Ix(u1:2)
Ignoring empty pin current: Ix(u2:1)
Ignoring empty pin current: Ix(u2:2)
Total elapsed time: 0.034 seconds.

